**$ENCRYPTED_LIB
**$INTERFACE
*$
*LM337-N_TRANS
*****************************************************************************
* (C) Copyright 2015 Texas Instruments Incorporated. All rights reserved.
*****************************************************************************
** This model is designed as an aid for customers of Texas Instruments.
** TI and its licensors and suppliers make no warranties, either expressed
** or implied, with respect to this model, including the warranties of
** merchantability or fitness for a particular purpose. The model is
** provided solely on an "as is" basis. The entire risk as to its quality
** and performance is with the customer
*****************************************************************************
*
** Released by: WEBENCH Design Center, Texas Instruments Inc.
* Part: LM337-N
* Date: 31MAR2016 
* Model Type: Transient
* Simulator: PSPICE
* Simulator Version: 16.2.0.p001
* EVM Order Number: 
* EVM Users Guide:  
* Datasheet: SNVS778E-MAY 1999-REVISED JANUARY 2016
*
* Model Version: Final 1.00
*
*****************************************************************************
*
* Updates:
*
* Final 1.00
* Release to Web
*
******************************************************************************
*
*Model Usage Notes:
*
*1.The following features have been modeled
*   a. Startup
*   b. PSRR.
*   C. Current limit response.
*   d. Dropout v/s Iout variation.
*   e. Transient responses. 
*2. Temperature effects are not been modeled.
*   
*****************************************************************************
.SUBCKT LM337_N_TRANS IN ADJ OUT
$CDNENCSTART
eee8c5c7a2bc4b01f045f303678664e7916da0bae22e8cb0bba041dd67c69ce448ea70148a9ac1670c8926c1ac5057c8ccfcd77bf87ca9dce38b9ccfc95c5aa8
7aff1ed17501806226c880f485e2ca343f941e94ae5533b956bfede5d11cc7ca4cee5cf3db2b0a800ab85863d615dc76ef5786ef51ffc25e3129b5db0562eab6
c9df73872fc604505fb03ed4eda6c4f2ae732c847d11d26ec801d3e66f178aba349ff3abef9e510accefcc2bf8692e3b7c92f900bdb8945a6401e621a9f03be7
a5d158a0fc11634f706b807646b803710730a12b4bcfbb1aea3caf28e323d2bbd0b0d4284ded5fa12188b5b152a17daf1c6fdf6cdedd824882ca6675f38ee87a
e9f419af62bfe95ecc0121b5e20e2076c72e677679789a89508e95ff7173491c9f7df7e1d8537137e67da8b7a98ca5e4644126c9831a96bdcc6f25414feca85a
76d6dc3e77b4e2b36d2732816eec5943318687bb48f754693e0fe09d2cf04522107322b4d7d77d68088a3567665fae6e0a06f51af0393c57713cce234c758db8
ea607534caa738989febfaf65655d2bba167a1d6170944c09a22c86f59dd1c373c310126e6bbe60bd8803ef52b23407a6394a299a97a5949d49685112e94c349
22cc75479b3d980a706b807646b80371b8be270f9cab7343e89db2fb868e90c204f5da97d6482757730aba6dda3f8e833e0fe09d2cf045224cabc5cca95465bb
b67df0d3ab862a12706b807646b80371b8be270f9cab73433034a5f774424fcac481a9738ea01d45477a84070914c1127c0ff5cdda206bc6de1bd0f595c8e3e5
8df0563ff6b12bcb706b807646b80371cfad109c2bd396466881452b9dd0d78e3e0fe09d2cf04522107322b4d7d77d68088a3567665fae6e8fcc3c0a018254aa
82d2e7992b7a58af706b807646b80371fdd956a0f0d7335c0dda1f72ed8ec7ac0e7ded5391a4b8a8ea703ea64a09419ca286ab8191b33007c27a0fe47ba19b0a
4651b4c215cbe2b1c23cdff2c91ac4504cee5cf3db2b0a800ab85863d615dc76ef5786ef51ffc25e4881ba104b566dc6b32654fa61016a04cfdf695fcd9922f1
8767f397bff4c3a731bbfa71d5efb6fe825b843a3aa9ddcd4cee5cf3db2b0a800ab85863d615dc76ef5786ef51ffc25e4881ba104b566dc610e403b4b7e7f6a5
6dcc2999c2dfe559706b807646b80371481b8837f4600d7b38c2c63851b19919855e487a2800314be926aaa25504c3c0d6e898bbf283c3dbe4f2f261a2fa944e
69ff18044fae7c89706b807646b80371fdd956a0f0d7335c54cc76da2670077b7489a7895d210103e926aaa25504c3c0d6e898bbf283c3dbe4f2f261a2fa944e
a3ce589fda26bc39706b807646b8037163d1ebe60620f47a8ff84965ac0438988f1d0e3b3309a749042f0c0c78bb0deb3e0fe09d2cf045224cabc5cca95465bb
1e36f10390632b7b706b807646b8037188f237f17078bb3e78280bd92f75473a2ecf8b1523577d8b5ae196b1dd1fe2722b4759d1a7aa0b78e89729e5d38ef58f
0be1bd08545f4ec3706b807646b8037181aec34a846648c9eeca062ffe77a6593c310126e6bbe60bd8803ef52b23407a6394a299a97a5949d49685112e94c349
f28257b2a3730294706b807646b803710730a12b4bcfbb1aea3caf28e323d2bb078d37791b2561592188b5b152a17daf1c6fdf6cdedd824882ca6675f38ee87a
6dcfb6d5e8929f04706b807646b80371776867ee43e68a58b5dd89e0eada5e2f266f5e89d2338c9d0602a1c3078e5f7d644126c9831a96bdcc6f25414feca85a
01379b2ac12fc58d0997d2179c3d76d2c7213d988a0b2f53b5443a3b512a391d36a8e6b316919badafec0fc86c3e6e92876c09a4de0fc9f2ebde8a6bb5f66188
999885ffe318eff07c92f900bdb8945a8ee72f5b1bb286dbd19f25c5ea1831dcdbdb1c72c03a128b316f927ad9307e1d82f6a72bddc298a214833fb12b578b31
e9f419af62bfe95ec12e63f53fc8b6c78fa97f4081b734eb6f7b98e75b088b137208a85e1aefd30ae2dc11b7d023d8b8faacbc979b86f7ab5d99f0e6ac37c4a0
575bf12a8001c3481e79755cd121e8583e0fe09d2cf04522107322b4d7d77d68088a3567665fae6e0a06f51af0393c57c854b88393b11deef88a3b617586046d
470dd7f55c073fcd55136b92d0559ec4e71f71e1875841716c3db1c64d87f5d95306b0d010c68b5242cccb999e8b46537a670ade8d16f6c1ab61075313228cb8
e9f419af62bfe95ebc27f931268b4061c72e677679789a8974763235dc81d091ee930fbe9afbfed16bcd59c0099558993bb6f9f913b2060e1fea651c973fe85d
bf1ee911780421dde926aaa25504c3c0d6e898bbf283c3dbad917b1f48cb6069efbeccf80add2dfa571e40a7575de4924b2f7f555b7ea7f18a0c44944596f1e9
48031809158c1c39a127fd1ef12dbabd776867ee43e68a586fc5e1e787686945b5f1c17ee7956303e926aaa25504c3c0d6e898bbf283c3dbe4f2f261a2fa944e
54653036f112a7e5706b807646b803719635ee95ea00d51c6147a218d847746bea3caf28e323d2bb558a754c3ca6fdc923b782b3d6a37df1405c965b6aab9fde
615a28c46d72374094fbbbfac28a5c5c53697e821c6154200a0ec22218277ba4bf1ee911780421dde926aaa25504c3c0d6e898bbf283c3dbe4f2f261a2fa944e
3d438685e8d81df0676b0834d7d2d801ae732c847d11d26eac8b9264f0772a44349ff3abef9e510aa8c91e20f198ecd47c92f900bdb8945a6401e621a9f03be7
705d459f50f7a08cdaf99020d108932be191180384f9837c83463dd640f012e500d3e0b087c737444cee5cf3db2b0a800ab85863d615dc768807848405a40375
ddf70eae3b59290554316c50056feeeb9a42c4b9d6578142ddd0faf211aedf14c481a9738ea01d45477a84070914c1127c0ff5cdda206bc6de1bd0f595c8e3e5
9afa1f10a7f457ea7674bbc8caf0d23de7a7ac7d39c4b64faed41d0d06901c485453634dcbb7e97a3c310126e6bbe60bd8803ef52b23407a6dfbd800603cb310
93d3808648446fd760c210771409cb2e4e44f1ff9810db6eb531fdb8889633b4bf1ee911780421dde926aaa25504c3c0d6e898bbf283c3dbe4f2f261a2fa944e
b90e0c5fe970b38760c210771409cb2e92fe7f16cd97a385f24bf58ddadd36c74b84da9a526f50928996186a7016e01159423a129c2540f0026fd27fbcfb0a0c
e0bee0f3fadd672460c210771409cb2e4e44f1ff9810db6ef24bf58ddadd36c75fbceec05a2e4b3f7d7f15953a32e2dc2188b5b152a17dafa6b6fcdb3cdb6942
b0eb42ca922cce59957673035b26e32bf654ab4550286bb917007897cc0ce5c5ba638254c399b5952594fc6756c8b3f5dd691f575957bab32485cd816c07ffba
981d954b390006163c310126e6bbe60bd8803ef52b23407a6394a299a97a594949df333bef18a554e212c482127f0ab869386c478f8f1f627111154e40e501d7
04f5acd939422ec02fbfcc2b872ff9465c9e215572494daace5ec34e6f8ad1ca282f50a4c2cae530f822a273800cd41ed12eb63ebbc81a421aabfa10941d45cf
2cfd781695004e3889c53fdab31de12c7b7fef356abbfcf8dcbaf28410657b93d560bb786460250dde71df547b77bf0a822d8d32c21e27e2fd2dca42fc028f60
20188b67f68cb04b504df074c9bb14743c310126e6bbe60bd8803ef52b23407a6394a299a97a594949df333bef18a554e212c482127f0ab8f5c249a2200514b2
5b7d7f52b30d44373a5d633249c85bba172800f7352e5c0668d4c1c796503f3a90ca9dac30797caf95cb653371f0651c7f9eeb7fd37db76fd8f19cb8eacee384
$CDNENCFINISH
.ENDS LM337_N_TRANS
.subckt LM337_N_F1 1 2 3 4  
$CDNENCSTART
eee8c5c7a2bc4b01f045f303678664e7916da0bae22e8cb0bba041dd67c69ce448ea70148a9ac1670c8926c1ac5057c8ccfcd77bf87ca9dce38b9ccfc95c5aa8
ae601cf82fbefc0c31820e631d1d1d74872d6da6e74e75ee2188b5b152a17daf1c6fdf6cdedd824810d650328e1f0a6e92c3a7258fa0b6fbd6248f873396fbdc
969b68e4450fa8bd6f31076d2b37e96b3a7bc5327c69eeaf4cee5cf3db2b0a800ab85863d615dc76ef5786ef51ffc25e4881ba104b566dc610e403b4b7e7f6a5
$CDNENCFINISH
.ends LM337_N_F1
*$
.subckt LM337_N_H1 1 2 3 4  
$CDNENCSTART
eee8c5c7a2bc4b01f045f303678664e7916da0bae22e8cb0bba041dd67c69ce448ea70148a9ac1670c8926c1ac5057c8ccfcd77bf87ca9dce38b9ccfc95c5aa8
2abee8045ea05af631820e631d1d1d745631fdfe31f523f92188b5b152a17daf1c6fdf6cdedd824810d650328e1f0a6e92c3a7258fa0b6fbd6248f873396fbdc
32ee4cbc53dd07ef6f31076d2b37e96b3a7bc5327c69eeaf4cee5cf3db2b0a800ab85863d615dc76ef5786ef51ffc25e4881ba104b566dc610e403b4b7e7f6a5
$CDNENCFINISH
.ends LM337_N_H1
*$
.SUBCKT COMPHYS_BASIC_GEN INP INM HYS OUT PARAMS: VDD=1 VSS=0 VTHRESH=0.5	
$CDNENCSTART
eee8c5c7a2bc4b01f045f303678664e7916da0bae22e8cb0bba041dd67c69ce448ea70148a9ac1670c8926c1ac5057c8ccfcd77bf87ca9dce38b9ccfc95c5aa8
9132b7121104d4358be44c41ab888f41b6e3a1568843d8672188b5b152a17daf1c6fdf6cdedd824810d650328e1f0a6e92c3a7258fa0b6fbd6248f873396fbdc
70d49a25931fcad5af5f0f227a33dfc56b574213c15e8d8904d73209bd6cb354e07469d76c73f504727902e71a3e75d8bb77e20fe987edd8d38aff4e12555a5d
d1579de13894cc53749d13634498f34b2814ec203481f38f6485690991963efc688dc2cfc32ec3a9609956094a2f05290f82827fc36822f02fdb594098788838
c985c90e830fff9457e2c5aa80851370e926aaa25504c3c0d6e898bbf283c3dbad917b1f48cb6069efbeccf80add2dfa571e40a7575de492d9b84f5bf6869a79
1fdb31c906bbcd7763285b29082243916c3db1c64d87f5d95306b0d010c68b5242cccb999e8b46537a670ade8d16f6c108d6e6d1799f33a55fca32e02bd9b598
13142c038a62aa150aa66cfdd7abddd73c310126e6bbe60bd8803ef52b23407a6394a299a97a594949df333bef18a554e212c482127f0ab8f5c249a2200514b2
$CDNENCFINISH
.ENDS COMPHYS_BASIC_GEN
*$

